<?xml version="1.0" encoding="UTF-8"?>

<!-- generated on 2021年01月12日 星期二 15时31分37秒 by Eclipse SUMO netedit Version 1.7.0
<configuration xmlns:xsi="http://www.w3.org/2001/XMLSchema-instance" xsi:noNamespaceSchemaLocation="http://sumo.dlr.de/xsd/netconvertConfiguration.xsd">

    <input>
        <sumo-net-file value="/home/changxi/sumo_projects/sumo_marl_v9/demo.net.xml"/>
    </input>

    <output>
        <output-file value="/home/changxi/sumo_projects/sumo_marl_v9/demo.net.xml"/>
    </output>

    <processing>
        <geometry.min-radius.fix.railways value="false"/>
        <geometry.max-grade.fix value="false"/>
        <offset.disable-normalization value="true"/>
        <lefthand value="false"/>
    </processing>

    <junctions>
        <no-internal-links value="false"/>
        <no-turnarounds value="true"/>
        <junctions.corner-detail value="5"/>
        <junctions.limit-turn-speed value="5.5"/>
        <rectangular-lane-cut value="false"/>
    </junctions>

    <pedestrian>
        <walkingareas value="false"/>
    </pedestrian>

    <report>
        <aggregate-warnings value="5"/>
    </report>

</configuration>
-->

<net version="1.6" junctionCornerDetail="5" limitTurnSpeed="5.50" xmlns:xsi="http://www.w3.org/2001/XMLSchema-instance" xsi:noNamespaceSchemaLocation="http://sumo.dlr.de/xsd/net_file.xsd">

    <location netOffset="0.00,0.00" convBoundary="-1000.00,-500.00,3000.00,1500.00" origBoundary="-10000000000.00,-10000000000.00,10000000000.00,10000000000.00" projParameter="!"/>

    <edge id=":1_0" function="internal">
        <lane id=":1_0_0" index="0" speed="13.89" length="8.00" shape="-246.00,1008.00 -254.00,1008.00"/>
        <lane id=":1_0_1" index="1" speed="13.89" length="8.00" shape="-246.00,1004.80 -254.00,1004.80"/>
        <lane id=":1_0_2" index="2" speed="13.89" length="8.00" shape="-246.00,1001.60 -254.00,1001.60"/>
    </edge>
    <edge id=":1_3" function="internal">
        <lane id=":1_3_0" index="0" speed="13.89" length="8.54" shape="-254.00,995.20 -251.54,994.70 -250.00,993.60 -248.46,992.50 -246.00,992.00"/>
        <lane id=":1_3_1" index="1" speed="13.89" length="8.54" shape="-254.00,998.40 -251.54,997.90 -250.00,996.80 -248.46,995.70 -246.00,995.20"/>
        <lane id=":1_3_2" index="2" speed="13.89" length="8.54" shape="-254.00,998.40 -246.00,998.40"/>
    </edge>
    <edge id=":1_w0" function="walkingarea">
        <lane id=":1_w0_0" index="0" allow="pedestrian" speed="1.00" length="13.07" width="3.20" shape="-246.00,1009.60 -246.00,1006.40 -246.00,1006.40 -246.00,1003.20 -246.00,1003.20 -246.00,1000.00 -246.00,1000.00 -246.00,996.80 -246.00,996.80 -246.00,993.60 -246.00,993.60 -246.00,990.40 -254.00,993.60 -254.00,996.80 -254.00,996.80 -254.00,1000.00 -254.00,1000.00 -254.00,1003.20 -254.00,1003.20 -254.00,1006.40 -254.00,1006.40 -254.00,1009.60"/>
    </edge>
    <edge id=":100_w0" function="walkingarea">
        <lane id=":100_w0_0" index="0" allow="pedestrian" speed="1.00" length="16.00" width="3.20" shape="1500.00,-500.00 1503.20,-500.00 1503.20,-500.00 1506.40,-500.00 1506.40,-500.00 1509.60,-500.00 1490.40,-500.00 1493.60,-500.00 1493.60,-500.00 1496.80,-500.00 1496.80,-500.00 1500.00,-500.00"/>
    </edge>
    <edge id=":101_0" function="internal">
        <lane id=":101_0_0" index="0" disallow="pedestrian" speed="13.89" length="6.00" shape="992.00,1251.50 992.00,1245.50"/>
        <lane id=":101_0_1" index="1" disallow="pedestrian" speed="13.89" length="6.00" shape="995.20,1251.50 995.20,1245.50"/>
        <lane id=":101_0_2" index="2" disallow="pedestrian" speed="13.89" length="6.00" shape="998.40,1251.50 998.40,1245.50"/>
    </edge>
    <edge id=":101_3" function="internal">
        <lane id=":101_3_0" index="0" disallow="pedestrian" speed="13.89" length="6.00" shape="1008.00,1245.50 1008.00,1251.50"/>
        <lane id=":101_3_1" index="1" disallow="pedestrian" speed="13.89" length="6.00" shape="1004.80,1245.50 1004.80,1251.50"/>
        <lane id=":101_3_2" index="2" disallow="pedestrian" speed="13.89" length="6.00" shape="1001.60,1245.50 1001.60,1251.50"/>
    </edge>
    <edge id=":101_w0" function="walkingarea">
        <lane id=":101_w0_0" index="0" allow="pedestrian" speed="1.00" length="3.91" width="3.00" shape="1013.10,1250.00 1013.10,1247.00 1011.60,1245.50 1009.60,1245.50"/>
    </edge>
    <edge id=":101_w1" function="walkingarea">
        <lane id=":101_w1_0" index="0" allow="pedestrian" speed="1.00" length="3.91" width="3.00" shape="990.40,1245.50 988.40,1245.50 986.90,1247.00 986.90,1250.00"/>
    </edge>
    <edge id=":102_0" function="internal">
        <lane id=":102_0_0" index="0" disallow="pedestrian" speed="13.89" length="6.00" shape="1251.50,1008.00 1245.50,1008.00"/>
        <lane id=":102_0_1" index="1" disallow="pedestrian" speed="13.89" length="6.00" shape="1251.50,1004.80 1245.50,1004.80"/>
        <lane id=":102_0_2" index="2" disallow="pedestrian" speed="13.89" length="6.00" shape="1251.50,1001.60 1245.50,1001.60"/>
    </edge>
    <edge id=":102_3" function="internal">
        <lane id=":102_3_0" index="0" disallow="pedestrian" speed="13.89" length="6.00" shape="1245.50,992.00 1251.50,992.00"/>
        <lane id=":102_3_1" index="1" disallow="pedestrian" speed="13.89" length="6.00" shape="1245.50,995.20 1251.50,995.20"/>
        <lane id=":102_3_2" index="2" disallow="pedestrian" speed="13.89" length="6.00" shape="1245.50,998.40 1251.50,998.40"/>
    </edge>
    <edge id=":102_w0" function="walkingarea">
        <lane id=":102_w0_0" index="0" allow="pedestrian" speed="1.00" length="3.91" width="3.00" shape="1245.50,1009.60 1245.50,1011.60 1247.00,1013.10 1250.00,1013.10"/>
    </edge>
    <edge id=":102_w1" function="walkingarea">
        <lane id=":102_w1_0" index="0" allow="pedestrian" speed="1.00" length="3.91" width="3.00" shape="1250.00,986.90 1247.00,986.90 1245.50,988.40 1245.50,990.40"/>
    </edge>
    <edge id=":103_0" function="internal">
        <lane id=":103_0_0" index="0" disallow="pedestrian" speed="13.89" length="6.00" shape="992.00,754.50 992.00,748.50"/>
        <lane id=":103_0_1" index="1" disallow="pedestrian" speed="13.89" length="6.00" shape="995.20,754.50 995.20,748.50"/>
        <lane id=":103_0_2" index="2" disallow="pedestrian" speed="13.89" length="6.00" shape="998.40,754.50 998.40,748.50"/>
    </edge>
    <edge id=":103_3" function="internal">
        <lane id=":103_3_0" index="0" disallow="pedestrian" speed="13.89" length="6.00" shape="1008.00,748.50 1008.00,754.50"/>
        <lane id=":103_3_1" index="1" disallow="pedestrian" speed="13.89" length="6.00" shape="1004.80,748.50 1004.80,754.50"/>
        <lane id=":103_3_2" index="2" disallow="pedestrian" speed="13.89" length="6.00" shape="1001.60,748.50 1001.60,754.50"/>
    </edge>
    <edge id=":103_w0" function="walkingarea">
        <lane id=":103_w0_0" index="0" allow="pedestrian" speed="1.00" length="3.91" width="3.00" shape="986.90,750.00 986.90,753.00 988.40,754.50 990.40,754.50"/>
    </edge>
    <edge id=":103_w1" function="walkingarea">
        <lane id=":103_w1_0" index="0" allow="pedestrian" speed="1.00" length="3.91" width="3.00" shape="1009.60,754.50 1011.60,754.50 1013.10,753.00 1013.10,750.00"/>
    </edge>
    <edge id=":104_0" function="internal">
        <lane id=":104_0_0" index="0" disallow="pedestrian" speed="13.89" length="6.00" shape="754.50,1008.00 748.50,1008.00"/>
        <lane id=":104_0_1" index="1" disallow="pedestrian" speed="13.89" length="6.00" shape="754.50,1004.80 748.50,1004.80"/>
        <lane id=":104_0_2" index="2" disallow="pedestrian" speed="13.89" length="6.00" shape="754.50,1001.60 748.50,1001.60"/>
    </edge>
    <edge id=":104_3" function="internal">
        <lane id=":104_3_0" index="0" disallow="pedestrian" speed="13.89" length="6.00" shape="748.50,992.00 754.50,992.00"/>
        <lane id=":104_3_1" index="1" disallow="pedestrian" speed="13.89" length="6.00" shape="748.50,995.20 754.50,995.20"/>
        <lane id=":104_3_2" index="2" disallow="pedestrian" speed="13.89" length="6.00" shape="748.50,998.40 754.50,998.40"/>
    </edge>
    <edge id=":104_w0" function="walkingarea">
        <lane id=":104_w0_0" index="0" allow="pedestrian" speed="1.00" length="3.91" width="3.00" shape="750.00,1013.10 753.00,1013.10 754.50,1011.60 754.50,1009.60"/>
    </edge>
    <edge id=":104_w1" function="walkingarea">
        <lane id=":104_w1_0" index="0" allow="pedestrian" speed="1.00" length="3.91" width="3.00" shape="754.50,990.40 754.50,988.40 753.00,986.90 750.00,986.90"/>
    </edge>
    <edge id=":2_0" function="internal">
        <lane id=":2_0_0" index="0" speed="13.89" length="8.00" shape="-246.00,8.00 -254.00,8.00"/>
        <lane id=":2_0_1" index="1" speed="13.89" length="8.00" shape="-246.00,4.80 -254.00,4.80"/>
        <lane id=":2_0_2" index="2" speed="13.89" length="8.00" shape="-246.00,1.60 -254.00,1.60"/>
    </edge>
    <edge id=":2_3" function="internal">
        <lane id=":2_3_0" index="0" speed="13.89" length="8.54" shape="-254.00,-4.80 -251.54,-5.30 -250.00,-6.40 -248.46,-7.50 -246.00,-8.00"/>
        <lane id=":2_3_1" index="1" speed="13.89" length="8.54" shape="-254.00,-1.60 -251.54,-2.10 -250.00,-3.20 -248.46,-4.30 -246.00,-4.80"/>
        <lane id=":2_3_2" index="2" speed="13.89" length="8.54" shape="-254.00,-1.60 -246.00,-1.60"/>
    </edge>
    <edge id=":2_w0" function="walkingarea">
        <lane id=":2_w0_0" index="0" allow="pedestrian" speed="1.00" length="13.07" width="3.20" shape="-246.00,9.60 -246.00,6.40 -246.00,6.40 -246.00,3.20 -246.00,3.20 -246.00,0.00 -246.00,0.00 -246.00,-3.20 -246.00,-3.20 -246.00,-6.40 -246.00,-6.40 -246.00,-9.60 -254.00,-6.40 -254.00,-3.20 -254.00,-3.20 -254.00,0.00 -254.00,0.00 -254.00,3.20 -254.00,3.20 -254.00,6.40 -254.00,6.40 -254.00,9.60"/>
    </edge>
    <edge id=":4_0" function="internal">
        <lane id=":4_0_0" index="0" speed="13.89" length="8.54" shape="2254.00,4.80 2251.54,5.30 2250.00,6.40 2248.46,7.50 2246.00,8.00"/>
        <lane id=":4_0_1" index="1" speed="13.89" length="8.54" shape="2254.00,1.60 2251.54,2.10 2250.00,3.20 2248.46,4.30 2246.00,4.80"/>
        <lane id=":4_0_2" index="2" speed="13.89" length="8.54" shape="2254.00,1.60 2246.00,1.60"/>
    </edge>
    <edge id=":4_3" function="internal">
        <lane id=":4_3_0" index="0" speed="13.89" length="8.00" shape="2246.00,-8.00 2254.00,-8.00"/>
        <lane id=":4_3_1" index="1" speed="13.89" length="8.00" shape="2246.00,-4.80 2254.00,-4.80"/>
        <lane id=":4_3_2" index="2" speed="13.89" length="8.00" shape="2246.00,-1.60 2254.00,-1.60"/>
    </edge>
    <edge id=":4_w0" function="walkingarea">
        <lane id=":4_w0_0" index="0" allow="pedestrian" speed="1.00" length="13.07" width="3.20" shape="2254.00,6.40 2254.00,3.20 2254.00,3.20 2254.00,0.00 2254.00,0.00 2254.00,-3.20 2254.00,-3.20 2254.00,-6.40 2254.00,-6.40 2254.00,-9.60 2246.00,-9.60 2246.00,-6.40 2246.00,-6.40 2246.00,-3.20 2246.00,-3.20 2246.00,0.00 2246.00,0.00 2246.00,3.20 2246.00,3.20 2246.00,6.40 2246.00,6.40 2246.00,9.60 2252.21,6.64 2250.97,7.23 2250.00,8.00 2249.03,8.77 2247.79,9.36"/>
    </edge>
    <edge id=":5_0" function="internal">
        <lane id=":5_0_0" index="0" speed="13.89" length="8.54" shape="2254.00,1004.80 2251.54,1005.30 2250.00,1006.40 2248.46,1007.50 2246.00,1008.00"/>
        <lane id=":5_0_1" index="1" speed="13.89" length="8.54" shape="2254.00,1001.60 2251.54,1002.10 2250.00,1003.20 2248.46,1004.30 2246.00,1004.80"/>
        <lane id=":5_0_2" index="2" speed="13.89" length="8.54" shape="2254.00,1001.60 2246.00,1001.60"/>
    </edge>
    <edge id=":5_3" function="internal">
        <lane id=":5_3_0" index="0" speed="13.89" length="8.00" shape="2246.00,992.00 2254.00,992.00"/>
        <lane id=":5_3_1" index="1" speed="13.89" length="8.00" shape="2246.00,995.20 2254.00,995.20"/>
        <lane id=":5_3_2" index="2" speed="13.89" length="8.00" shape="2246.00,998.40 2254.00,998.40"/>
    </edge>
    <edge id=":5_w0" function="walkingarea">
        <lane id=":5_w0_0" index="0" allow="pedestrian" speed="1.00" length="13.07" width="3.20" shape="2254.00,1006.40 2254.00,1003.20 2254.00,1003.20 2254.00,1000.00 2254.00,1000.00 2254.00,996.80 2254.00,996.80 2254.00,993.60 2254.00,993.60 2254.00,990.40 2246.00,990.40 2246.00,993.60 2246.00,993.60 2246.00,996.80 2246.00,996.80 2246.00,1000.00 2246.00,1000.00 2246.00,1003.20 2246.00,1003.20 2246.00,1006.40 2246.00,1006.40 2246.00,1009.60 2252.21,1006.64 2250.97,1007.23 2250.00,1008.00 2249.03,1008.77 2247.79,1009.36"/>
    </edge>
    <edge id=":8_w0" function="walkingarea">
        <lane id=":8_w0_0" index="0" allow="pedestrian" speed="1.00" length="16.00" width="3.20" shape="1000.00,-500.00 1003.20,-500.00 1003.20,-500.00 1006.40,-500.00 1006.40,-500.00 1009.60,-500.00 990.40,-500.00 993.60,-500.00 993.60,-500.00 996.80,-500.00 996.80,-500.00 1000.00,-500.00"/>
    </edge>
    <edge id=":91_w0" function="walkingarea">
        <lane id=":91_w0_0" index="0" allow="pedestrian" speed="1.00" length="12.80" width="3.20" shape="-1000.00,1000.00 -1000.00,996.80 -1000.00,996.80 -1000.00,993.60 -1000.00,1009.60 -1000.00,1006.40 -1000.00,1006.40 -1000.00,1003.20 -1000.00,1003.20 -1000.00,1000.00"/>
    </edge>
    <edge id=":911_0" function="internal">
        <lane id=":911_0_0" index="0" speed="13.89" length="0.10" shape="-500.00,1008.00 -500.00,1008.00"/>
        <lane id=":911_0_1" index="1" speed="13.89" length="0.10" shape="-500.00,1004.80 -500.00,1004.80"/>
        <lane id=":911_0_2" index="2" speed="13.89" length="0.10" shape="-500.00,1001.60 -500.00,1001.60"/>
    </edge>
    <edge id=":911_3" function="internal">
        <lane id=":911_3_0" index="0" speed="13.89" length="0.10" shape="-500.00,995.20 -500.00,995.20"/>
        <lane id=":911_3_1" index="1" speed="13.89" length="0.10" shape="-500.00,998.40 -500.00,998.40"/>
    </edge>
    <edge id=":911_w0" function="walkingarea">
        <lane id=":911_w0_0" index="0" allow="pedestrian" speed="1.00" length="12.80" width="3.20" shape="-500.00,1009.60 -500.00,1006.40 -500.00,1006.40 -500.00,1003.20 -500.00,1003.20 -500.00,1000.00 -500.00,1000.00 -500.00,996.80 -500.00,996.80 -500.00,993.60 -500.00,993.60 -500.00,996.80 -500.00,996.80 -500.00,1000.00 -500.00,1000.00 -500.00,1003.20 -500.00,1003.20 -500.00,1006.40 -500.00,1006.40 -500.00,1009.60"/>
    </edge>
    <edge id=":912_0" function="internal">
        <lane id=":912_0_0" index="0" speed="13.89" length="0.10" shape="-500.00,8.00 -500.00,8.00"/>
        <lane id=":912_0_1" index="1" speed="13.89" length="0.10" shape="-500.00,4.80 -500.00,4.80"/>
        <lane id=":912_0_2" index="2" speed="13.89" length="0.10" shape="-500.00,1.60 -500.00,1.60"/>
    </edge>
    <edge id=":912_3" function="internal">
        <lane id=":912_3_0" index="0" speed="13.89" length="0.10" shape="-500.00,-4.80 -500.00,-4.80"/>
        <lane id=":912_3_1" index="1" speed="13.89" length="0.10" shape="-500.00,-1.60 -500.00,-1.60"/>
    </edge>
    <edge id=":912_w0" function="walkingarea">
        <lane id=":912_w0_0" index="0" allow="pedestrian" speed="1.00" length="12.80" width="3.20" shape="-500.00,9.60 -500.00,6.40 -500.00,6.40 -500.00,3.20 -500.00,3.20 -500.00,0.00 -500.00,0.00 -500.00,-3.20 -500.00,-3.20 -500.00,-6.40 -500.00,-6.40 -500.00,-3.20 -500.00,-3.20 -500.00,0.00 -500.00,0.00 -500.00,3.20 -500.00,3.20 -500.00,6.40 -500.00,6.40 -500.00,9.60"/>
    </edge>
    <edge id=":913_0" function="internal">
        <lane id=":913_0_0" index="0" speed="13.89" length="0.10" shape="2500.00,4.80 2500.00,4.80"/>
        <lane id=":913_0_1" index="1" speed="13.89" length="0.10" shape="2500.00,1.60 2500.00,1.60"/>
    </edge>
    <edge id=":913_2" function="internal">
        <lane id=":913_2_0" index="0" speed="13.89" length="0.10" shape="2500.00,-8.00 2500.00,-8.00"/>
        <lane id=":913_2_1" index="1" speed="13.89" length="0.10" shape="2500.00,-4.80 2500.00,-4.80"/>
        <lane id=":913_2_2" index="2" speed="13.89" length="0.10" shape="2500.00,-1.60 2500.00,-1.60"/>
    </edge>
    <edge id=":913_w0" function="walkingarea">
        <lane id=":913_w0_0" index="0" allow="pedestrian" speed="1.00" length="12.80" width="3.20" shape="2500.00,6.40 2500.00,3.20 2500.00,3.20 2500.00,0.00 2500.00,0.00 2500.00,-3.20 2500.00,-3.20 2500.00,-6.40 2500.00,-6.40 2500.00,-9.60 2500.00,-9.60 2500.00,-6.40 2500.00,-6.40 2500.00,-3.20 2500.00,-3.20 2500.00,0.00 2500.00,0.00 2500.00,3.20 2500.00,3.20 2500.00,6.40"/>
    </edge>
    <edge id=":914_0" function="internal">
        <lane id=":914_0_0" index="0" speed="13.89" length="0.10" shape="2500.00,1004.80 2500.00,1004.80"/>
        <lane id=":914_0_1" index="1" speed="13.89" length="0.10" shape="2500.00,1001.60 2500.00,1001.60"/>
    </edge>
    <edge id=":914_2" function="internal">
        <lane id=":914_2_0" index="0" speed="13.89" length="0.10" shape="2500.00,992.00 2500.00,992.00"/>
        <lane id=":914_2_1" index="1" speed="13.89" length="0.10" shape="2500.00,995.20 2500.00,995.20"/>
        <lane id=":914_2_2" index="2" speed="13.89" length="0.10" shape="2500.00,998.40 2500.00,998.40"/>
    </edge>
    <edge id=":914_w0" function="walkingarea">
        <lane id=":914_w0_0" index="0" allow="pedestrian" speed="1.00" length="12.80" width="3.20" shape="2500.00,1006.40 2500.00,1003.20 2500.00,1003.20 2500.00,1000.00 2500.00,1000.00 2500.00,996.80 2500.00,996.80 2500.00,993.60 2500.00,993.60 2500.00,990.40 2500.00,990.40 2500.00,993.60 2500.00,993.60 2500.00,996.80 2500.00,996.80 2500.00,1000.00 2500.00,1000.00 2500.00,1003.20 2500.00,1003.20 2500.00,1006.40"/>
    </edge>
    <edge id=":92_w0" function="walkingarea">
        <lane id=":92_w0_0" index="0" allow="pedestrian" speed="1.00" length="12.80" width="3.20" shape="-1000.00,0.00 -1000.00,-3.20 -1000.00,-3.20 -1000.00,-6.40 -1000.00,9.60 -1000.00,6.40 -1000.00,6.40 -1000.00,3.20 -1000.00,3.20 -1000.00,0.00"/>
    </edge>
    <edge id=":93_w0" function="walkingarea">
        <lane id=":93_w0_0" index="0" allow="pedestrian" speed="1.00" length="12.80" width="3.20" shape="3000.00,0.00 3000.00,3.20 3000.00,3.20 3000.00,6.40 3000.00,-9.60 3000.00,-6.40 3000.00,-6.40 3000.00,-3.20 3000.00,-3.20 3000.00,0.00"/>
    </edge>
    <edge id=":94_w0" function="walkingarea">
        <lane id=":94_w0_0" index="0" allow="pedestrian" speed="1.00" length="12.80" width="3.20" shape="3000.00,1000.00 3000.00,1003.20 3000.00,1003.20 3000.00,1006.40 3000.00,990.40 3000.00,993.60 3000.00,993.60 3000.00,996.80 3000.00,996.80 3000.00,1000.00"/>
    </edge>
    <edge id=":95_w0" function="walkingarea">
        <lane id=":95_w0_0" index="0" allow="pedestrian" speed="1.00" length="16.00" width="3.20" shape="-1000.00,500.00 -1000.00,496.80 -1000.00,496.80 -1000.00,493.60 -1000.00,493.60 -1000.00,490.40 -1000.00,509.60 -1000.00,506.40 -1000.00,506.40 -1000.00,503.20 -1000.00,503.20 -1000.00,500.00"/>
    </edge>
    <edge id=":951_0" function="internal">
        <lane id=":951_0_0" index="0" speed="13.89" length="0.10" shape="-500.00,508.00 -500.00,508.00"/>
        <lane id=":951_0_1" index="1" speed="13.89" length="0.10" shape="-500.00,504.80 -500.00,504.80"/>
        <lane id=":951_0_2" index="2" speed="13.89" length="0.10" shape="-500.00,501.60 -500.00,501.60"/>
    </edge>
    <edge id=":951_3" function="internal">
        <lane id=":951_3_0" index="0" speed="13.89" length="0.10" shape="-500.00,492.00 -500.00,492.00"/>
        <lane id=":951_3_1" index="1" speed="13.89" length="0.10" shape="-500.00,495.20 -500.00,495.20"/>
        <lane id=":951_3_2" index="2" speed="13.89" length="0.10" shape="-500.00,498.40 -500.00,498.40"/>
    </edge>
    <edge id=":951_w0" function="walkingarea">
        <lane id=":951_w0_0" index="0" allow="pedestrian" speed="1.00" length="16.00" width="3.20" shape="-500.00,509.60 -500.00,506.40 -500.00,506.40 -500.00,503.20 -500.00,503.20 -500.00,500.00 -500.00,500.00 -500.00,496.80 -500.00,496.80 -500.00,493.60 -500.00,493.60 -500.00,490.40 -500.00,490.40 -500.00,493.60 -500.00,493.60 -500.00,496.80 -500.00,496.80 -500.00,500.00 -500.00,500.00 -500.00,503.20 -500.00,503.20 -500.00,506.40 -500.00,506.40 -500.00,509.60"/>
    </edge>
    <edge id=":96_w0" function="walkingarea">
        <lane id=":96_w0_0" index="0" allow="pedestrian" speed="1.00" length="16.00" width="3.20" shape="3000.00,500.00 3000.00,503.20 3000.00,503.20 3000.00,506.40 3000.00,506.40 3000.00,509.60 3000.00,490.40 3000.00,493.60 3000.00,493.60 3000.00,496.80 3000.00,496.80 3000.00,500.00"/>
    </edge>
    <edge id=":961_0" function="internal">
        <lane id=":961_0_0" index="0" speed="13.89" length="0.10" shape="2500.00,508.00 2500.00,508.00"/>
        <lane id=":961_0_1" index="1" speed="13.89" length="0.10" shape="2500.00,504.80 2500.00,504.80"/>
        <lane id=":961_0_2" index="2" speed="13.89" length="0.10" shape="2500.00,501.60 2500.00,501.60"/>
    </edge>
    <edge id=":961_3" function="internal">
        <lane id=":961_3_0" index="0" speed="13.89" length="0.10" shape="2500.00,492.00 2500.00,492.00"/>
        <lane id=":961_3_1" index="1" speed="13.89" length="0.10" shape="2500.00,495.20 2500.00,495.20"/>
        <lane id=":961_3_2" index="2" speed="13.89" length="0.10" shape="2500.00,498.40 2500.00,498.40"/>
    </edge>
    <edge id=":961_w0" function="walkingarea">
        <lane id=":961_w0_0" index="0" allow="pedestrian" speed="1.00" length="16.00" width="3.20" shape="2500.00,509.60 2500.00,506.40 2500.00,506.40 2500.00,503.20 2500.00,503.20 2500.00,500.00 2500.00,500.00 2500.00,496.80 2500.00,496.80 2500.00,493.60 2500.00,493.60 2500.00,490.40 2500.00,490.40 2500.00,493.60 2500.00,493.60 2500.00,496.80 2500.00,496.80 2500.00,500.00 2500.00,500.00 2500.00,503.20 2500.00,503.20 2500.00,506.40 2500.00,506.40 2500.00,509.60"/>
    </edge>
    <edge id=":97_w0" function="walkingarea">
        <lane id=":97_w0_0" index="0" allow="pedestrian" speed="1.00" length="16.00" width="3.20" shape="500.00,1500.00 496.80,1500.00 496.80,1500.00 493.60,1500.00 493.60,1500.00 490.40,1500.00 509.60,1500.00 506.40,1500.00 506.40,1500.00 503.20,1500.00 503.20,1500.00 500.00,1500.00"/>
    </edge>
    <edge id=":98_w0" function="walkingarea">
        <lane id=":98_w0_0" index="0" allow="pedestrian" speed="1.00" length="16.00" width="3.20" shape="500.00,-500.00 503.20,-500.00 503.20,-500.00 506.40,-500.00 506.40,-500.00 509.60,-500.00 490.40,-500.00 493.60,-500.00 493.60,-500.00 496.80,-500.00 496.80,-500.00 500.00,-500.00"/>
    </edge>
    <edge id=":99_w0" function="walkingarea">
        <lane id=":99_w0_0" index="0" allow="pedestrian" speed="1.00" length="16.00" width="3.20" shape="1500.00,1500.00 1496.80,1500.00 1496.80,1500.00 1493.60,1500.00 1493.60,1500.00 1490.40,1500.00 1509.60,1500.00 1506.40,1500.00 1506.40,1500.00 1503.20,1500.00 1503.20,1500.00 1500.00,1500.00"/>
    </edge>
    <edge id=":light11_0" function="internal">
        <lane id=":light11_0_0" index="0" speed="6.51" length="9.03" shape="492.06,1013.60 491.71,1011.15 490.66,1009.40 488.91,1008.35 486.46,1008.00"/>
    </edge>
    <edge id=":light11_1" function="internal">
        <lane id=":light11_1_0" index="0" speed="13.89" length="27.20" shape="492.06,1013.60 492.06,986.40"/>
        <lane id=":light11_1_1" index="1" speed="13.89" length="27.20" shape="495.26,1013.60 495.26,986.40"/>
        <lane id=":light11_1_2" index="2" speed="13.89" length="27.20" shape="498.46,1013.60 498.46,986.40"/>
    </edge>
    <edge id=":light11_4" function="internal">
        <lane id=":light11_4_0" index="0" disallow="pedestrian" speed="10.88" length="9.57" shape="498.46,1013.60 499.41,1005.55 500.06,1004.24"/>
    </edge>
    <edge id=":light11_5" function="internal">
        <lane id=":light11_5_0" index="0" disallow="pedestrian" speed="10.36" length="7.98" shape="498.46,1013.60 499.41,1006.95 500.06,1005.87"/>
    </edge>
    <edge id=":light11_24" function="internal">
        <lane id=":light11_24_0" index="0" disallow="pedestrian" speed="10.88" length="17.58" shape="500.06,1004.24 502.26,999.80 507.01,996.35 513.66,995.20"/>
    </edge>
    <edge id=":light11_25" function="internal">
        <lane id=":light11_25_0" index="0" disallow="pedestrian" speed="10.36" length="16.53" shape="500.06,1005.87 502.26,1002.20 507.01,999.35 513.66,998.40"/>
    </edge>
    <edge id=":light11_6" function="internal">
        <lane id=":light11_6_0" index="0" disallow="pedestrian" speed="6.51" length="9.03" shape="513.66,1008.00 511.21,1008.35 509.46,1009.40 508.41,1011.15 508.06,1013.60"/>
    </edge>
    <edge id=":light11_7" function="internal">
        <lane id=":light11_7_0" index="0" disallow="pedestrian" speed="13.89" length="27.20" shape="513.66,1008.00 486.46,1008.00"/>
        <lane id=":light11_7_1" index="1" disallow="pedestrian" speed="13.89" length="27.20" shape="513.66,1004.80 486.46,1004.80"/>
        <lane id=":light11_7_2" index="2" disallow="pedestrian" speed="13.89" length="27.20" shape="513.66,1001.60 486.46,1001.60"/>
    </edge>
    <edge id=":light11_10" function="internal">
        <lane id=":light11_10_0" index="0" disallow="pedestrian" speed="10.88" length="9.57" shape="513.66,1001.60 505.61,1000.65 504.30,1000.00"/>
    </edge>
    <edge id=":light11_11" function="internal">
        <lane id=":light11_11_0" index="0" disallow="pedestrian" speed="10.36" length="7.98" shape="513.66,1001.60 507.01,1000.65 505.93,1000.00"/>
    </edge>
    <edge id=":light11_26" function="internal">
        <lane id=":light11_26_0" index="0" disallow="pedestrian" speed="10.88" length="17.57" shape="504.30,1000.00 499.86,997.80 496.41,993.05 495.26,986.40"/>
    </edge>
    <edge id=":light11_27" function="internal">
        <lane id=":light11_27_0" index="0" disallow="pedestrian" speed="10.36" length="16.53" shape="505.93,1000.00 502.26,997.80 499.41,993.05 498.46,986.40"/>
    </edge>
    <edge id=":light11_12" function="internal">
        <lane id=":light11_12_0" index="0" disallow="pedestrian" speed="6.51" length="9.03" shape="508.06,986.40 508.41,988.85 509.46,990.60 511.21,991.65 513.66,992.00"/>
    </edge>
    <edge id=":light11_13" function="internal">
        <lane id=":light11_13_0" index="0" speed="13.89" length="27.20" shape="508.06,986.40 508.06,1013.60"/>
        <lane id=":light11_13_1" index="1" speed="13.89" length="27.20" shape="504.86,986.40 504.86,1013.60"/>
        <lane id=":light11_13_2" index="2" speed="13.89" length="27.20" shape="501.66,986.40 501.66,1013.60"/>
    </edge>
    <edge id=":light11_16" function="internal">
        <lane id=":light11_16_0" index="0" speed="10.88" length="9.57" shape="501.66,986.40 500.71,994.45 500.06,995.76"/>
    </edge>
    <edge id=":light11_17" function="internal">
        <lane id=":light11_17_0" index="0" speed="10.36" length="7.98" shape="501.66,986.40 500.71,993.05 500.06,994.13"/>
    </edge>
    <edge id=":light11_28" function="internal">
        <lane id=":light11_28_0" index="0" speed="10.88" length="17.57" shape="500.06,995.76 497.86,1000.20 493.11,1003.65 486.46,1004.80"/>
    </edge>
    <edge id=":light11_29" function="internal">
        <lane id=":light11_29_0" index="0" speed="10.36" length="16.53" shape="500.06,994.13 497.86,997.80 493.11,1000.65 486.46,1001.60"/>
    </edge>
    <edge id=":light11_18" function="internal">
        <lane id=":light11_18_0" index="0" speed="6.51" length="9.03" shape="486.46,992.00 488.91,991.65 490.66,990.60 491.71,988.85 492.06,986.40"/>
    </edge>
    <edge id=":light11_19" function="internal">
        <lane id=":light11_19_0" index="0" disallow="pedestrian" speed="13.89" length="27.20" shape="486.46,992.00 513.66,992.00"/>
        <lane id=":light11_19_1" index="1" disallow="pedestrian" speed="13.89" length="27.20" shape="486.46,995.20 513.66,995.20"/>
        <lane id=":light11_19_2" index="2" disallow="pedestrian" speed="13.89" length="27.20" shape="486.46,998.40 513.66,998.40"/>
    </edge>
    <edge id=":light11_22" function="internal">
        <lane id=":light11_22_0" index="0" speed="10.88" length="9.57" shape="486.46,998.40 494.51,999.35 495.82,1000.00"/>
    </edge>
    <edge id=":light11_23" function="internal">
        <lane id=":light11_23_0" index="0" speed="10.36" length="7.98" shape="486.46,998.40 493.11,999.35 494.19,1000.00"/>
    </edge>
    <edge id=":light11_30" function="internal">
        <lane id=":light11_30_0" index="0" speed="10.88" length="17.57" shape="495.82,1000.00 500.26,1002.20 503.71,1006.95 504.86,1013.60"/>
    </edge>
    <edge id=":light11_31" function="internal">
        <lane id=":light11_31_0" index="0" speed="10.36" length="16.53" shape="494.19,1000.00 497.86,1002.20 500.71,1006.95 501.66,1013.60"/>
    </edge>
    <edge id=":light11_w0" function="walkingarea">
        <lane id=":light11_w0_0" index="0" allow="pedestrian" speed="1.00" length="22.11" width="3.20" shape="509.66,986.40 506.46,986.40 506.46,986.40 503.26,986.40 503.26,986.40 500.06,986.40 500.06,986.40 496.86,986.40 496.86,986.40 493.66,986.40 493.66,986.40 490.46,986.40 486.46,990.40 486.46,993.60 486.46,993.60 486.46,996.80 486.46,996.80 486.46,1000.00 486.46,1000.00 486.46,1003.20 486.46,1003.20 486.46,1006.40 486.46,1006.40 486.46,1009.60 490.46,1013.60 493.66,1013.60 493.66,1013.60 496.86,1013.60 496.86,1013.60 500.06,1013.60 500.06,1013.60 503.26,1013.60 503.26,1013.60 506.46,1013.60 506.46,1013.60 509.66,1013.60"/>
    </edge>
    <edge id=":light12_0" function="internal">
        <lane id=":light12_0_0" index="0" disallow="pedestrian" speed="6.51" length="4.75" shape="992.00,1013.60 991.65,1011.15 990.60,1009.40 990.40,1009.28"/>
    </edge>
    <edge id=":light12_1" function="internal">
        <lane id=":light12_1_0" index="0" disallow="pedestrian" speed="13.89" length="27.20" shape="992.00,1013.60 992.00,986.40"/>
        <lane id=":light12_1_1" index="1" disallow="pedestrian" speed="13.89" length="27.20" shape="995.20,1013.60 995.20,986.40"/>