<?xml version="1.0" encoding="UTF-8"?>

<!-- generated on 2021年02月08日 星期一 10时19分28秒 by Eclipse SUMO netedit Version 1.8.0
<configuration xmlns:xsi="http://www.w3.org/2001/XMLSchema-instance" xsi:noNamespaceSchemaLocation="http://sumo.dlr.de/xsd/netconvertConfiguration.xsd">

    <input>
        <sumo-net-file value="/home/changxi/sumo_projects/sumo_marl_pingshan/config/pingshan.net.xml"/>
    </input>

    <output>
        <output-file value="/home/changxi/sumo_projects/sumo_marl_pingshan/config/pingshan.net.xml"/>
    </output>

    <processing>
        <geometry.min-radius.fix.railways value="false"/>
        <geometry.max-grade.fix value="false"/>
        <offset.disable-normalization value="true"/>
        <lefthand value="false"/>
    </processing>

    <junctions>
        <no-turnarounds value="true"/>
        <junctions.corner-detail value="5"/>
        <junctions.limit-turn-speed value="5.5"/>
        <rectangular-lane-cut value="false"/>
    </junctions>

    <pedestrian>
        <walkingareas value="false"/>
    </pedestrian>

    <report>
        <aggregate-warnings value="5"/>
    </report>

</configuration>
-->

<net version="1.6" junctionCornerDetail="5" limitTurnSpeed="5.50" xmlns:xsi="http://www.w3.org/2001/XMLSchema-instance" xsi:noNamespaceSchemaLocation="http://sumo.dlr.de/xsd/net_file.xsd">

    <location netOffset="-219815.80,-2511372.70" convBoundary="3958.82,399.50,12178.99,4514.51" origBoundary="114.272959,22.648679,114.409350,22.768016" projParameter="+proj=utm +zone=50 +ellps=WGS84 +datum=WGS84 +units=m +no_defs"/>

    <type id="highway.bridleway" priority="1" numLanes="1" speed="2.78" allow="pedestrian" oneway="1" width="2.00"/>
    <type id="highway.bus_guideway" priority="1" numLanes="1" speed="13.89" allow="bus" oneway="1"/>
    <type id="highway.cycleway" priority="1" numLanes="1" speed="8.33" allow="bicycle" oneway="1" width="1.00"/>
    <type id="highway.footway" priority="1" numLanes="1" speed="2.78" allow="pedestrian" oneway="1" width="2.00"/>
    <type id="highway.ford" priority="1" numLanes="1" speed="2.78" allow="army" oneway="1"/>
    <type id="highway.living_street" priority="2" numLanes="1" speed="2.78" disallow="tram rail_urban rail rail_electric rail_fast ship" oneway="1"/>
    <type id="highway.motorway" priority="14" numLanes="2" speed="27.78" allow="private emergency authority army vip passenger hov taxi bus coach delivery truck trailer motorcycle evehicle custom1 custom2" oneway="1"/>
    <type id="highway.motorway_link" priority="9" numLanes="1" speed="16.67" allow="private emergency authority army vip passenger hov taxi bus coach delivery truck trailer motorcycle evehicle custom1 custom2" oneway="1"/>
    <type id="highway.path" priority="1" numLanes="1" speed="2.78" allow="pedestrian bicycle" oneway="1" width="2.00"/>
    <type id="highway.pedestrian" priority="1" numLanes="1" speed="2.78" allow="pedestrian" oneway="1" width="2.00"/>
    <type id="highway.primary" priority="12" numLanes="2" speed="13.89" disallow="tram rail_urban rail rail_electric rail_fast ship" oneway="1"/>
    <type id="highway.primary_link" priority="7" numLanes="1" speed="13.89" disallow="tram rail_urban rail rail_electric rail_fast ship" oneway="1"/>
    <type id="highway.raceway" priority="15" numLanes="2" speed="83.33" allow="vip" oneway="1"/>
    <type id="highway.residential" priority="3" numLanes="1" speed="13.89" disallow="tram rail_urban rail rail_electric rail_fast ship" oneway="1"/>
    <type id="highway.secondary" priority="11" numLanes="1" speed="13.89" disallow="tram rail_urban rail rail_electric rail_fast ship" oneway="1"/>
    <type id="highway.secondary_link" priority="6" numLanes="1" speed="13.89" disallow="tram rail_urban rail rail_electric rail_fast ship" oneway="1"/>
    <type id="highway.service" priority="1" numLanes="1" speed="5.56" allow="pedestrian delivery bicycle" oneway="1"/>
    <type id="highway.stairs" priority="1" numLanes="1" speed="1.39" allow="pedestrian" oneway="1" width="2.00"/>
    <type id="highway.step" priority="1" numLanes="1" speed="1.39" allow="pedestrian" oneway="1" width="2.00"/>
    <type id="highway.steps" priority="1" numLanes="1" speed="1.39" allow="pedestrian" oneway="1" width="2.00"/>
    <type id="highway.tertiary" priority="10" numLanes="1" speed="13.89" disallow="tram rail_urban rail rail_electric rail_fast ship" oneway="1"/>
    <type id="highway.tertiary_link" priority="5" numLanes="1" speed="13.89" disallow="tram rail_urban rail rail_electric rail_fast ship" oneway="1"/>
    <type id="highway.track" priority="1" numLanes="1" speed="5.56" allow="pedestrian motorcycle moped bicycle" oneway="1"/>
    <type id="highway.trunk" priority="13" numLanes="2" speed="13.89" disallow="pedestrian bicycle tram rail_urban rail rail_electric rail_fast ship" oneway="1"/>
    <type id="highway.trunk_link" priority="8" numLanes="1" speed="13.89" disallow="pedestrian bicycle tram rail_urban rail rail_electric rail_fast ship" oneway="1"/>
    <type id="highway.unclassified" priority="4" numLanes="1" speed="13.89" disallow="tram rail_urban rail rail_electric rail_fast ship" oneway="1"/>
    <type id="highway.unsurfaced" priority="1" numLanes="1" speed="8.33" disallow="tram rail_urban rail rail_electric rail_fast ship" oneway="1"/>
    <type id="railway.highspeed" priority="21" numLanes="1" speed="69.44" allow="rail_fast" oneway="1"/>
    <type id="railway.light_rail" priority="19" numLanes="1" speed="27.78" allow="rail_urban" oneway="1"/>
    <type id="railway.preserved" priority="16" numLanes="1" speed="27.78" allow="rail" oneway="1"/>
    <type id="railway.rail" priority="20" numLanes="1" speed="44.44" allow="rail" oneway="1"/>
    <type id="railway.subway" priority="18" numLanes="1" speed="27.78" allow="rail_urban" oneway="1"/>
    <type id="railway.tram" priority="17" numLanes="1" speed="13.89" allow="tram" oneway="1"/>

    <edge id=":1305742439_0" function="internal">
        <lane id=":1305742439_0_0" index="0" allow="delivery" speed="5.31" length="5.24" shape="7827.96,3126.61 7826.68,3127.41 7825.91,3128.37 7825.63,3129.51 7825.86,3130.81"/>
    </edge>
    <edge id=":1305742439_1" function="internal">
        <lane id=":1305742439_1_0" index="0" disallow="pedestrian bicycle tram rail_urban rail rail_electric rail_fast ship" speed="13.89" length="6.46" shape="7823.97,3124.80 7825.86,3130.81"/>
        <lane id=":1305742439_1_1" index="1" disallow="pedestrian bicycle tram rail_urban rail rail_electric rail_fast ship" speed="13.89" length="6.46" shape="7820.90,3125.70 7822.84,3131.86"/>
        <lane id=":1305742439_1_2" index="2" disallow="pedestrian bicycle tram rail_urban rail rail_electric rail_fast ship" speed="13.89" length="6.46" shape="7817.83,3126.60 7819.82,3132.91"/>
    </edge>
    <edge id=":1305742450_0" function="internal">
        <lane id=":1305742450_0_0" index="0" disallow="pedestrian bicycle tram rail_urban rail rail_electric rail_fast ship" speed="6.77" length="9.32" shape="7549.87,2177.68 7547.81,2179.27 7546.68,2181.11 7546.49,2183.20 7547.22,2185.54"/>
    </edge>
    <edge id=":1305742450_1" function="internal">
        <lane id=":1305742450_1_0" index="0" disallow="tram rail_urban rail rail_electric rail_fast ship" speed="3.65" length="4.67" shape="7549.87,2177.68 7548.43,2177.59 7547.69,2177.10 7547.63,2176.20 7548.27,2174.91"/>
    </edge>
    <edge id=":1305742450_2" function="internal">
        <lane id=":1305742450_2_0" index="0" disallow="pedestrian bicycle tram rail_urban rail rail_electric rail_fast ship" speed="6.42" length="9.04" shape="7540.73,2172.73 7542.19,2174.75 7543.93,2175.78 7545.96,2175.84 7548.27,2174.91"/>
    </edge>
    <edge id=":1305742450_3" function="internal">
        <lane id=":1305742450_3_0" index="0" disallow="pedestrian bicycle tram rail_urban rail rail_electric rail_fast ship" speed="13.89" length="14.26" shape="7540.73,2172.73 7547.22,2185.54"/>
        <lane id=":1305742450_3_1" index="1" disallow="pedestrian bicycle tram rail_urban rail rail_electric rail_fast ship" speed="13.89" length="14.26" shape="7537.90,2174.22 7544.34,2186.94"/>
        <lane id=":1305742450_3_2" index="2" disallow="pedestrian bicycle tram rail_urban rail rail_electric rail_fast ship" speed="13.89" length="14.26" shape="7535.07,2175.71 7541.46,2188.34"/>
    </edge>
    <edge id=":2282049740_0" function="internal">
        <lane id=":2282049740_0_0" index="0" disallow="tram rail_urban rail rail_electric rail_fast ship" speed="13.89" length="31.42" shape="4332.18,2293.58 4325.68,2300.02 4322.51,2305.62 4320.31,2311.90 4316.70,2320.34"/>
    </edge>
    <edge id=":2282049740_1" function="internal">
        <lane id=":2282049740_1_0" index="0" disallow="tram rail_urban rail rail_electric rail_fast ship" speed="13.89" length="32.80" shape="4330.21,2291.05 4323.35,2297.85 4319.90,2303.80 4317.52,2310.34 4313.84,2318.89"/>
    </edge>
    <edge id=":2282049740_2" function="internal">
        <lane id=":2282049740_2_0" index="0" disallow="tram rail_urban rail rail_electric rail_fast ship" speed="13.89" length="34.18" shape="4328.24,2288.53 4321.01,2295.68 4317.29,2301.98 4314.73,2308.79 4310.99,2317.44"/>
    </edge>
    <edge id=":2282049740_3" function="internal">
        <lane id=":2282049740_3_0" index="0" disallow="tram rail_urban rail rail_electric rail_fast ship" speed="13.89" length="31.86" shape="4325.18,2286.90 4318.95,2294.35 4316.64,2301.36 4314.51,2308.18 4308.78,2315.09"/>
        <lane id=":2282049740_3_1" index="1" disallow="tram rail_urban rail rail_electric rail_fast ship" speed="13.89" length="31.86" shape="4325.18,2286.90 4318.86,2293.78 4315.90,2299.90 4313.02,2305.91 4306.94,2312.46"/>
        <lane id=":2282049740_3_2" index="2" disallow="tram rail_urban rail rail_electric rail_fast ship" speed="13.89" length="31.86" shape="4325.18,2286.90 4318.72,2293.25 4315.11,2298.48 4311.52,2303.65 4305.10,2309.84"/>
    </edge>
    <edge id=":2510400509_0" function="internal">
        <lane id=":2510400509_0_0" index="0" disallow="pedestrian bicycle tram rail_urban rail rail_electric rail_fast ship" speed="13.89" length="15.02" shape="8139.51,3756.27 8138.65,3759.58 8137.86,3762.67 8137.28,3766.26 8137.06,3771.03"/>
    </edge>
    <edge id=":2510400509_1" function="internal">
        <lane id=":2510400509_1_0" index="0" disallow="pedestrian bicycle tram rail_urban rail rail_electric rail_fast ship" speed="13.89" length="14.96" shape="8135.14,3755.95 8137.06,3771.03"/>
        <lane id=":2510400509_1_1" index="1" disallow="pedestrian bicycle tram rail_urban rail rail_electric rail_fast ship" speed="13.89" length="14.96" shape="8131.95,3756.20 8133.86,3771.03"/>
        <lane id=":2510400509_1_2" index="2" disallow="pedestrian bicycle tram rail_urban rail rail_electric rail_fast ship" speed="13.89" length="14.96" shape="8128.76,3756.44 8130.66,3771.03"/>
    </edge>
    <edge id=":2719758949_0" function="internal">
        <lane id=":2719758949_0_0" index="0" disallow="tram rail_urban rail rail_electric rail_fast ship" speed="6.95" length="10.12" shape="7130.66,2158.59 7129.56,2156.37 7127.83,2155.02 7125.46,2154.55 7122.46,2154.94"/>
    </edge>
    <edge id=":2719758949_1" function="internal">
        <lane id=":2719758949_1_0" index="0" disallow="tram rail_urban rail rail_electric rail_fast ship" speed="13.89" length="14.92" shape="7130.66,2158.59 7129.46,2155.05 7128.00,2151.63 7126.32,2148.30 7124.44,2145.07"/>
    </edge>
    <edge id=":2719758949_2" function="internal">
        <lane id=":2719758949_2_0" index="0" disallow="tram rail_urban rail rail_electric rail_fast ship" speed="8.76" length="5.45" shape="7130.66,2158.59 7130.08,2154.83 7130.39,2153.22"/>
    </edge>
    <edge id=":2719758949_3" function="internal">
        <lane id=":2719758949_3_0" index="0" disallow="tram rail_urban rail rail_electric rail_fast ship" speed="3.65" length="2.34" shape="7130.66,2158.59 7131.09,2157.21 7131.74,2156.60"/>
    </edge>
    <edge id=":2719758949_16" function="internal">
        <lane id=":2719758949_16_0" index="0" disallow="tram rail_urban rail rail_electric rail_fast ship" speed="8.76" length="8.82" shape="7130.39,2153.22 7130.71,2151.57 7132.54,2148.78 7135.57,2146.49"/>
    </edge>
    <edge id=":2719758949_17" function="internal">
        <lane id=":2719758949_17_0" index="0" disallow="tram rail_urban rail rail_electric rail_fast ship" speed="3.65" length="2.34" shape="7131.74,2156.60 7132.62,2156.75 7133.73,2157.68"/>
    </edge>
    <edge id=":2719758949_4" function="internal">
        <lane id=":2719758949_4_0" index="0" disallow="tram rail_urban rail rail_electric rail_fast ship" speed="7.39" length="9.90" shape="7137.14,2149.28 7135.03,2150.87 7133.76,2152.80 7133.33,2155.07 7133.73,2157.68"/>
    </edge>
    <edge id=":2719758949_5" function="internal">
        <lane id=":2719758949_5_0" index="0" disallow="tram rail_urban rail rail_electric rail_fast ship" speed="13.89" length="15.78" shape="7137.14,2149.28 7133.69,2151.03 7129.99,2152.57 7126.18,2153.89 7122.46,2154.94"/>
    </edge>
    <edge id=":2719758949_6" function="internal">
        <lane id=":2719758949_6_0" index="0" disallow="tram rail_urban rail rail_electric rail_fast ship" speed="8.35" length="15.11" shape="7137.14,2149.28 7133.53,2150.60 7130.21,2150.34 7127.18,2148.50 7124.44,2145.07"/>
    </edge>
    <edge id=":2719758949_7" function="internal">
        <lane id=":2719758949_7_0" index="0" disallow="tram rail_urban rail rail_electric rail_fast ship" speed="3.65" length="4.67" shape="7137.14,2149.28 7135.71,2149.17 7134.96,2148.67 7134.92,2147.77 7135.57,2146.49"/>
    </edge>
    <edge id=":2719758949_8" function="internal">
        <lane id=":2719758949_8_0" index="0" disallow="tram rail_urban rail rail_electric rail_fast ship" speed="6.94" length="10.10" shape="7127.17,2143.39 7129.03,2145.77 7131.06,2147.07 7133.24,2147.32 7135.57,2146.49"/>
    </edge>
    <edge id=":2719758949_9" function="internal">
        <lane id=":2719758949_9_0" index="0" disallow="tram rail_urban rail rail_electric rail_fast ship" speed="13.89" length="15.76" shape="7127.17,2143.39 7129.10,2146.75 7130.90,2150.33 7132.47,2154.02 7133.73,2157.68"/>
    </edge>
    <edge id=":2719758949_10" function="internal">
        <lane id=":2719758949_10_0" index="0" disallow="tram rail_urban rail rail_electric rail_fast ship" speed="7.56" length="6.68" shape="7127.17,2143.39 7128.95,2147.49 7128.82,2149.70"/>
    </edge>
    <edge id=":2719758949_11" function="internal">
        <lane id=":2719758949_11_0" index="0" disallow="tram rail_urban rail rail_electric rail_fast ship" speed="3.65" length="2.34" shape="7127.17,2143.39 7127.11,2144.83 7126.64,2145.59"/>
    </edge>
    <edge id=":2719758949_18" function="internal">
        <lane id=":2719758949_18_0" index="0" disallow="tram rail_urban rail rail_electric rail_fast ship" speed="7.56" length="8.84" shape="7128.82,2149.70 7128.75,2150.77 7126.59,2153.26 7122.46,2154.94"/>
    </edge>
    <edge id=":2719758949_19" function="internal">
        <lane id=":2719758949_19_0" index="0" disallow="tram rail_urban rail rail_electric rail_fast ship" speed="3.65" length="2.34" shape="7126.64,2145.59 7125.75,2145.67 7124.44,2145.07"/>
    </edge>
    <edge id=":2719758949_12" function="internal">
        <lane id=":2719758949_12_0" index="0" disallow="tram rail_urban rail rail_electric rail_fast ship" speed="5.95" length="9.09" shape="7121.68,2151.83 7124.10,2150.85 7125.37,2149.39 7125.48,2147.47 7124.44,2145.07"/>
    </edge>
    <edge id=":2719758949_13" function="internal">
        <lane id=":2719758949_13_0" index="0" disallow="tram rail_urban rail rail_electric rail_fast ship" speed="13.89" length="14.93" shape="7121.68,2151.83 7125.29,2150.83 7128.81,2149.63 7132.25,2148.19 7135.57,2146.49"/>
    </edge>
    <edge id=":2719758949_14" function="internal">
        <lane id=":2719758949_14_0" index="0" disallow="tram rail_urban rail rail_electric rail_fast ship" speed="8.37" length="15.11" shape="7121.68,2151.83 7126.04,2151.30 7129.50,2152.10 7132.06,2154.22 7133.73,2157.68"/>
    </edge>
    <edge id=":2719758949_15" function="internal">
        <lane id=":2719758949_15_0" index="0" disallow="tram rail_urban rail rail_electric rail_fast ship" speed="3.65" length="4.67" shape="7121.68,2151.83 7123.04,2152.32 7123.62,2153.00 7123.43,2153.87 7122.46,2154.94"/>
    </edge>
    <edge id=":3153998992_0" function="internal">
        <lane id=":3153998992_0_0" index="0" disallow="pedestrian bicycle tram rail_urban rail rail_electric rail_fast ship" speed="13.89" length="22.78" shape="8259.56,3734.95 8253.18,3730.99 8247.41,3729.01 8242.47,3727.90 8238.58,3726.57"/>
    </edge>
    <edge id=":3153998992_1" function="internal">
        <lane id=":3153998992_1_0" index="0" disallow="tram rail_urban rail rail_electric rail_fast ship" speed="13.89" length="22.79" shape="8259.56,3734.95 8254.13,3731.04 8250.08,3728.83 8245.98,3726.70 8240.38,3723.00"/>
        <lane id=":3153998992_1_1" index="1" disallow="tram rail_urban rail rail_electric rail_fast ship" speed="13.89" length="22.79" shape="8261.57,3732.46 8256.10,3728.52 8252.03,3726.30 8247.91,3724.15 8242.28,3720.42"/>
        <lane id=":3153998992_1_2" index="2" disallow="tram rail_urban rail rail_electric rail_fast ship" speed="13.89" length="22.79" shape="8263.57,3729.96 8258.07,3726.00 8253.98,3723.76 8249.84,3721.59 8244.17,3717.85"/>
        <lane id=":3153998992_1_3" index="3" disallow="tram rail_urban rail rail_electric rail_fast ship" speed="13.89" length="22.79" shape="8263.57,3729.96 8246.07,3715.27"/>
    </edge>
    <edge id=":3192154803_0" function="internal">
        <lane id=":3192154803_0_0" index="0" disallow="tram rail_urban rail rail_electric rail_fast ship" speed="13.89" length="25.23" shape="7506.49,3122.18 7513.51,3126.97 7519.63,3130.12 7524.75,3132.23 7528.73,3133.88"/>
    </edge>
    <edge id=":3192154803_1" function="internal">
        <lane id=":3192154803_1_0" index="0" disallow="tram rail_urban rail rail_electric rail_fast ship" speed="13.89" length="25.24" shape="7506.49,3122.18 7526.65,3137.28"/>
        <lane id=":3192154803_1_1" index="1" disallow="tram rail_urban rail rail_electric rail_fast ship" speed="13.89" length="25.24" shape="7504.52,3124.70 7524.72,3139.83"/>
        <lane id=":3192154803_1_2" index="2" disallow="tram rail_urban rail rail_electric rail_fast ship" speed="13.89" length="25.24" shape="7502.55,3127.22 7522.78,3142.38"/>
    </edge>
    <edge id=":3192154810_0" function="internal">
        <lane id=":3192154810_0_0" index="0" allow="pedestrian delivery bicycle" speed="5.86" length="5.57" shape="8837.22,4139.08 8836.77,4140.70 8836.76,4142.09 8837.18,4143.25 8838.04,4144.18"/>
    </edge>
    <edge id=":3192154810_1" function="internal">
        <lane id=":3192154810_1_0" index="0" disallow="tram rail_urban rail rail_electric rail_fast ship" speed="13.89" length="6.47" shape="8833.02,4140.22 8838.04,4144.18"/>
        <lane id=":3192154810_1_1" index="1" disallow="tram rail_urban rail rail_electric rail_fast ship" speed="13.89" length="6.47" shape="8831.02,4142.72 8836.10,4146.73"/>
        <lane id=":3192154810_1_2" index="2" disallow="tram rail_urban rail rail_electric rail_fast ship" speed="13.89" length="6.47" shape="8829.03,4145.23 8834.17,4149.27"/>
    </edge>
    <edge id=":3192154850_0" function="internal">
        <lane id=":3192154850_0_0" index="0" disallow="tram rail_urban rail rail_electric rail_fast ship" speed="13.89" length="19.31" shape="7240.91,2909.69 7257.00,2920.37"/>
    </edge>
    <edge id=":3192154850_1" function="internal">
        <lane id=":3192154850_1_0" index="0" disallow="tram rail_urban rail rail_electric rail_fast ship" speed="13.89" length="19.31" shape="7239.28,2912.77 7243.41,2914.37 7248.31,2916.25 7253.12,2918.29 7257.00,2920.37"/>
    </edge>
    <edge id=":3192154884_0" function="internal">
        <lane id=":3192154884_0_0" index="0" disallow="tram rail_urban rail rail_electric rail_fast ship" speed="13.89" length="19.07" shape="7704.99,3267.17 7707.06,3270.35 7709.32,3273.82 7712.44,3277.61 7717.10,3281.73"/>
    </edge>
    <edge id=":3192154884_1" function="internal">
        <lane id=":3192154884_1_0" index="0" disallow="tram rail_urban rail rail_electric rail_fast ship" speed="13.89" length="19.08" shape="7701.89,3270.20 7717.10,3281.73"/>
        <lane id=":3192154884_1_1" index="1" disallow="tram rail_urban rail rail_electric rail_fast ship" speed="13.89" length="19.08" shape="7699.96,3272.75 7715.16,3284.28"/>
        <lane id=":3192154884_1_2" index="2" disallow="tram rail_urban rail rail_electric rail_fast ship" speed="13.89" length="19.08" shape="7698.03,3275.30 7713.23,3286.83"/>
    </edge>
    <edge id=":3192155046_0" function="internal">
        <lane id=":3192155046_0_0" index="0" disallow="tram rail_urban rail rail_electric rail_fast ship" speed="6.38" length="9.04" shape="8887.46,3911.34 8889.87,3912.00 8891.87,3911.70 8893.46,3910.45 8894.64,3908.25"/>
    </edge>
    <edge id=":3192155046_1" function="internal">
        <lane id=":3192155046_1_0" index="0" disallow="tram rail_urban rail rail_electric rail_fast ship" speed="3.65" length="4.67" shape="8887.46,3911.34 8888.24,3912.55 8888.29,3913.44 8887.61,3914.02 8886.19,3914.27"/>
    </edge>
    <edge id=":3192155046_2" function="internal">
        <lane id=":3192155046_2_0" index="0" disallow="tram rail_urban rail rail_electric rail_fast ship" speed="6.87" length="9.43" shape="8889.96,3921.83 8890.35,3919.41 8889.86,3917.34 8888.47,3915.63 8886.19,3914.27"/>
    </edge>
    <edge id=":3192155046_3" function="internal">
        <lane id=":3192155046_3_0" index="0" disallow="tram rail_urban rail rail_electric rail_fast ship" speed="13.89" length="14.24" shape="8889.96,3921.83 8894.64,3908.25"/>
        <lane id=":3192155046_3_1" index="1" disallow="tram rail_urban rail rail_electric rail_fast ship" speed="13.89" length="14.24" shape="8893.01,3922.81 8897.65,3909.35"/>
        <lane id=":3192155046_3_2" index="2" disallow="tram rail_urban rail rail_electric rail_fast ship" speed="13.89" length="14.24" shape="8896.05,3923.79 8900.65,3910.45"/>
    </edge>
    <edge id=":3192155165_0" function="internal">
        <lane id=":3192155165_0_0" index="0" disallow="tram rail_urban rail rail_electric rail_fast ship" speed="13.89" length="21.72" shape="7562.63,3146.40 7580.26,3159.08"/>
    </edge>
    <edge id=":3192155165_1" function="internal">
        <lane id=":3192155165_1_0" index="0" disallow="tram rail_urban rail rail_electric rail_fast ship" speed="13.89" length="21.71" shape="7560.88,3149.36 7565.25,3151.36 7570.77,3153.89 7576.20,3156.58 7580.26,3159.08"/>
    </edge>
    <edge id=":3192155211_0" function="internal">
        <lane id=":3192155211_0_0" index="0" disallow="tram rail_urban rail rail_electric rail_fast ship" speed="13.89" length="17.62" shape="7183.64,2889.46 7188.75,2892.10 7192.84,2893.90 7196.35,2895.26 7199.74,2896.57"/>
    </edge>
    <edge id=":3192155211_1" function="internal">
        <lane id=":3192155211_1_0" index="0" disallow="tram rail_urban rail rail_electric rail_fast ship" speed="13.89" length="17.65" shape="7183.64,2889.46 7188.10,2892.26 7190.89,2894.58 7193.64,2896.98 7197.96,2900.02"/>
        <lane id=":3192155211_1_1" index="1" disallow="tram rail_urban rail rail_electric rail_fast ship" speed="13.89" length="17.65" shape="7182.09,2892.26 7186.50,2895.03 7189.27,2897.33 7191.98,2899.71 7196.25,2902.73"/>
        <lane id=":3192155211_1_2" index="2" disallow="tram rail_urban rail rail_electric rail_fast ship" speed="13.89" length="17.65" shape="7180.54,2895.06 7184.91,2897.81 7187.64,2900.09 7190.32,2902.45 7194.55,2905.44"/>
    </edge>
    <edge id=":3192158811_0" function="internal">
        <lane id=":3192158811_0_0" index="0" disallow="tram rail_urban rail rail_electric rail_fast ship" speed="6.26" length="9.04" shape="7610.04,1691.05 7608.60,1688.99 7606.87,1687.97 7604.87,1688.00 7602.60,1689.08"/>
    </edge>
    <edge id=":3192158811_1" function="internal">
        <lane id=":3192158811_1_0" index="0" disallow="tram rail_urban rail rail_electric rail_fast ship" speed="13.89" length="18.16" shape="7610.04,1691.05 7601.24,1675.17"/>
    </edge>
    <edge id=":3192158811_2" function="internal">
        <lane id=":3192158811_2_0" index="0" disallow="tram rail_urban rail rail_electric rail_fast ship" speed="3.65" length="4.67" shape="7610.04,1691.05 7610.22,1689.62 7610.75,1688.90 7611.64,1688.90 7612.90,1689.61"/>
    </edge>
    <edge id=":3192158811_3" function="internal">
        <lane id=":3192158811_3_0" index="0" disallow="tram rail_urban rail rail_electric rail_fast ship" speed="7.46" length="10.72" shape="7615.36,1680.23 7613.23,1682.25 7612.11,1684.48 7612.00,1686.94 7612.90,1689.61"/>
    </edge>
    <edge id=":3192158811_4" function="internal">
        <lane id=":3192158811_4_0" index="0" disallow="tram rail_urban rail rail_electric rail_fast ship" speed="13.89" length="15.40" shape="7615.36,1680.23 7602.60,1689.08"/>
        <lane id=":3192158811_4_1" index="1" disallow="tram rail_urban rail rail_electric rail_fast ship" speed="13.89" length="15.40" shape="7613.48,1677.64 7600.83,1686.42"/>
        <lane id=":3192158811_4_2" index="2" disallow="tram rail_urban rail rail_electric rail_fast ship" speed="13.89" length="15.40" shape="7611.60,1675.05 7599.06,1683.75"/>
    </edge>
    <edge id=":3192158811_7" function="internal">
        <lane id=":3192158811_7_0" index="0" disallow="tram rail_urban rail rail_electric rail_fast ship" speed="7.17" length="11.88" shape="7611.60,1675.05 7608.23,1677.03 7605.39,1677.71 7603.06,1677.09 7601.24,1675.17"/>
    </edge>
    <edge id=":3192158811_8" function="internal">
        <lane id=":3192158811_8_0" index="0" disallow="tram rail_urban rail rail_electric rail_fast ship" speed="13.89" length="18.41" shape="7603.98,1673.51 7612.90,1689.61"/>
    </edge>
    <edge id=":3192158811_9" function="internal">
        <lane id=":3192158811_9_0" index="0" disallow="tram rail_urban rail rail_electric rail_fast ship" speed="7.70" length="12.64" shape="7603.98,1673.51 7604.80,1676.01 7604.26,1678.55 7602.34,1681.13 7599.06,1683.75"/>
    </edge>
    <edge id=":3192158811_10" function="internal">
        <lane id=":3192158811_10_0" index="0" disallow="tram rail_urban rail rail_electric rail_fast ship" speed="3.65" length="4.67" shape="7603.98,1673.51 7603.92,1674.95 7603.44,1675.71 7602.55,1675.78 7601.24,1675.17"/>
    </edge>
    <edge id=":3206118782_0" function="internal">
        <lane id=":3206118782_0_0" index="0" disallow="tram rail_urban rail rail_electric rail_fast ship" speed="13.89" length="25.57" shape="6860.13,679.67 6852.06,682.48 6846.01,685.94 6841.45,689.31 6837.88,691.84"/>
    </edge>
    <edge id=":3206118782_1" function="internal">
        <lane id=":3206118782_1_0" index="0" disallow="tram rail_urban rail rail_electric rail_fast ship" speed="13.89" length="26.41" shape="6859.38,676.56 6851.76,679.24 6846.63,682.43 6842.13,685.74 6836.40,688.78"/>
        <lane id=":3206118782_1_1" index="1" disallow="tram rail_urban rail rail_electric rail_fast ship" speed="13.89" length="26.41" shape="6858.63,673.45 6850.85,676.17 6845.59,679.41 6840.99,682.75 6835.22,685.80"/>
    </edge>
    <edge id=":3206684975_0" function="internal">
        <lane id=":3206684975_0_0" index="0" disallow="tram rail_urban rail rail_electric rail_fast ship" speed="6.40" length="9.04" shape="7265.85,2083.23 7264.44,2081.17 7262.72,2080.10 7260.70,2080.02 7258.37,2080.92"/>
    </edge>
    <edge id=":3206684975_1" function="internal">
        <lane id=":3206684975_1_0" index="0" disallow="tram rail_urban rail rail_electric rail_fast ship" speed="13.89" length="14.48" shape="7265.85,2083.23 7259.23,2070.35"/>
    </edge>
    <edge id=":3206684975_2" function="internal">
        <lane id=":3206684975_2_0" index="0" disallow="tram rail_urban rail rail_electric rail_fast ship" speed="8.08" length="5.90" shape="7265.85,2083.23 7264.60,2079.47 7264.73,2077.53"/>
    </edge>
    <edge id=":3206684975_3" function="internal">
        <lane id=":3206684975_3_0" index="0" disallow="tram rail_urban rail rail_electric rail_fast ship" speed="3.65" length="2.34" shape="7265.85,2083.23 7266.04,2081.80 7266.58,2081.08"/>
    </edge>
    <edge id=":3206684975_16" function="internal">
        <lane id=":3206684975_16_0" index="0" disallow="tram rail_urban rail rail_electric rail_fast ship" speed="8.08" length="8.42" shape="7264.73,2077.53 7264.81,2076.21 7266.49,2073.46 7269.64,2071.21"/>
    </edge>
    <edge id=":3206684975_17" function="internal">
        <lane id=":3206684975_17_0" index="0" disallow="tram rail_urban rail rail_electric rail_fast ship" speed="3.65" length="2.34" shape="7266.58,2081.08 7267.47,2081.08 7268.72,2081.80"/>
    </edge>
    <edge id=":3206684975_4" function="internal">
        <lane id=":3206684975_4_0" index="0" disallow="tram rail_urban rail rail_electric rail_fast ship" speed="6.60" length="9.21" shape="7271.10,2074.05 7269.10,2075.50 7268.03,2077.27 7267.90,2079.37 7268.72,2081.80"/>
    </edge>
    <edge id=":3206684975_5" function="internal">
        <lane id=":3206684975_5_0" index="0" disallow="tram rail_urban rail rail_electric rail_fast ship" speed="13.89" length="14.47" shape="7271.10,2074.05 7258.37,2080.92"/>
    </edge>
    <edge id=":3206684975_6" function="internal">
        <lane id=":3206684975_6_0" index="0" disallow="tram rail_urban rail rail_electric rail_fast ship" speed="8.03" length="14.14" shape="7271.10,2074.05 7267.45,2075.32 7264.25,2075.13 7261.51,2073.47 7259.23,2070.35"/>
    </edge>
    <edge id=":3206684975_7" function="internal">
        <lane id=":3206684975_7_0" index="0" disallow="tram rail_urban rail rail_electric rail_fast ship" speed="3.65" length="4.67" shape="7271.10,2074.05 7269.67,2073.89 7268.95,2073.36 7268.94,2072.47 7269.64,2071.21"/>
    </edge>